* File: Final_with_piso.sp.pex
* Created: Sat Nov  4 04:29:08 2017
* Program "Calibre xRC"
* Version "v2013.4_37.29"
* Nominal Temperature: 27C
* Circuit Temperature: 27C
* 
.subckt PM_FINAL_WITH_PISO_NCLK 3 7 9 13 17 19 20 23 27 31 33 37 39 43 47 51 53
+ 54 57 59 60 63 67 71 75 77 79 83 87 91 95 97 98 99 100 103 107 111 115 117 119
+ 123 127 131 135 137 138 139 140 142 143 144 146 147 148 150 151 152 158 166
+ 171 174 176 178 182 190 192 194 195 198 203 212 214 216 217 218 219 220 222
+ 223 228 230 235 239 248 250 252 254 255 256 258 259 264 266 273 275 284 286
+ 288 290 291 292 293 294 295 300 302 309 311 321 328 332 345 442 443 446 649
+ 653 658 662 667 671 684 687 690 701 723 728 759 764 770 795 800
c226 819 GND 0.13063f
c227 817 GND 0.04374f
c228 815 GND 0.13063f
c229 813 GND 0.04374f
c230 811 GND 0.0729f
c231 806 GND 0.0729f
c232 800 GND 0.65323f
c233 798 GND 0.0729f
c234 795 GND 0.65323f
c235 793 GND 0.0729f
c236 789 GND 0.07533f
c237 785 GND 0.07533f
c238 783 GND 0.13063f
c239 781 GND 0.04374f
c240 779 GND 0.13063f
c241 777 GND 0.04374f
c242 775 GND 0.0729f
c243 770 GND 0.0729f
c244 764 GND 0.65323f
c245 762 GND 0.0729f
c246 759 GND 0.65323f
c247 757 GND 0.0729f
c248 753 GND 0.07533f
c249 749 GND 0.07533f
c250 747 GND 0.13063f
c251 745 GND 0.04374f
c252 743 GND 0.13063f
c253 741 GND 0.04374f
c254 739 GND 0.0729f
c255 734 GND 0.0729f
c256 728 GND 0.65323f
c257 726 GND 0.0729f
c258 723 GND 0.65323f
c259 721 GND 0.0729f
c260 717 GND 0.07533f
c261 713 GND 0.07533f
c262 711 GND 0.13063f
c263 709 GND 0.04374f
c264 707 GND 0.0729f
c265 701 GND 0.65323f
c266 699 GND 0.0729f
c267 695 GND 0.07533f
c268 690 GND 0.0657745f
c269 687 GND 0.0560585f
c270 684 GND 0.0580345f
c271 671 GND 0.0284682f
c272 667 GND 0.0276305f
c273 662 GND 0.0310205f
c274 658 GND 0.0287404f
c275 653 GND 0.0332554f
c276 649 GND 0.0154803f
c277 590 GND 0.00325407f
c278 589 GND 0.0215f
c279 585 GND 0.00325407f
c280 584 GND 0.0215f
c281 578 GND 0.066375f
c282 577 GND 0.008525f
c283 572 GND 0.066375f
c284 571 GND 0.008525f
c285 568 GND 0.00325407f
c286 567 GND 0.0215f
c287 563 GND 0.00325407f
c288 562 GND 0.0215f
c289 556 GND 0.066375f
c290 555 GND 0.008525f
c291 550 GND 0.066375f
c292 549 GND 0.008525f
c293 546 GND 0.00325407f
c294 545 GND 0.0215f
c295 541 GND 0.00325407f
c296 540 GND 0.0215f
c297 534 GND 0.066375f
c298 533 GND 0.008525f
c299 528 GND 0.066375f
c300 527 GND 0.008525f
c301 524 GND 0.00325407f
c302 523 GND 0.0215f
c303 517 GND 0.066375f
c304 516 GND 0.008525f
c305 513 GND 0.07965f
c306 510 GND 0.0215f
c307 509 GND 7.75e-19
c308 506 GND 0.07965f
c309 503 GND 0.0215f
c310 502 GND 7.75e-19
c311 499 GND 0.0215f
c312 496 GND 0.09558f
c313 492 GND 0.0215f
c314 489 GND 0.09558f
c315 485 GND 0.0215f
c316 482 GND 0.09558f
c317 478 GND 0.0215f
c318 475 GND 0.09558f
c319 467 GND 0.07965f
c320 464 GND 0.0215f
c321 463 GND 7.75e-19
c322 460 GND 0.07965f
c323 457 GND 0.0215f
c324 456 GND 7.75e-19
c325 453 GND 0.0215f
c326 450 GND 0.09558f
c327 446 GND 0.0215f
c328 443 GND 0.09558f
c329 439 GND 0.0215f
c330 436 GND 0.09558f
c331 432 GND 0.0215f
c332 429 GND 0.09558f
c333 421 GND 0.07965f
c334 418 GND 0.0215f
c335 417 GND 7.75e-19
c336 414 GND 0.07965f
c337 411 GND 0.0215f
c338 410 GND 7.75e-19
c339 407 GND 0.0215f
c340 404 GND 0.09558f
c341 400 GND 0.0215f
c342 397 GND 0.09558f
c343 393 GND 0.0215f
c344 390 GND 0.09558f
c345 386 GND 0.0215f
c346 383 GND 0.09558f
c347 375 GND 0.07965f
c348 372 GND 0.0215f
c349 371 GND 7.75e-19
c350 368 GND 0.0215f
c351 365 GND 0.09558f
c352 361 GND 0.0215f
c353 358 GND 0.09558f
c354 352 GND 0.075925f
c355 351 GND 0.02457f
c356 345 GND 0.02079f
c357 338 GND 0.04158f
c358 334 GND 0.07079f
c359 332 GND 0.03402f
c360 328 GND 0.04649f
c361 326 GND 0.0378f
c362 321 GND 0.0189f
c363 316 GND 0.04158f
c364 312 GND 0.07079f
c365 311 GND 0.70349f
c366 309 GND 0.70349f
c367 302 GND 0.220545f
c368 300 GND 0.220545f
c369 295 GND 0.49245f
c370 294 GND 0.49243f
c371 293 GND 0.056705f
c372 292 GND 0.52258f
c373 291 GND 0.494118f
c374 290 GND 0.494098f
c375 288 GND 0.524268f
c376 286 GND 0.336665f
c377 284 GND 0.336665f
c378 283 GND 0.0401851f
c379 281 GND 0.0452149f
c380 278 GND 0.0340103f
c381 276 GND 0.0340103f
c382 275 GND 0.70349f
c383 273 GND 0.70349f
c384 266 GND 0.220545f
c385 264 GND 0.220545f
c386 259 GND 0.497475f
c387 258 GND 0.497455f
c388 256 GND 0.527605f
c389 255 GND 0.500822f
c390 254 GND 0.500802f
c391 252 GND 0.530962f
c392 250 GND 0.336665f
c393 248 GND 0.336665f
c394 247 GND 0.0452149f
c395 245 GND 0.0401802f
c396 242 GND 0.0340103f
c397 240 GND 0.0340103f
c398 239 GND 0.70349f
c399 235 GND 0.70349f
c400 230 GND 0.220545f
c401 228 GND 0.220545f
c402 223 GND 0.497475f
c403 222 GND 0.497455f
c404 220 GND 0.527605f
c405 219 GND 0.490772f
c406 218 GND 0.490752f
c407 217 GND 0.0513775f
c408 216 GND 0.520912f
c409 214 GND 0.336665f
c410 212 GND 0.336665f
c411 211 GND 0.0351552f
c412 210 GND 0.0758926f
c413 209 GND 0.0552649f
c414 206 GND 0.0340103f
c415 204 GND 0.0340103f
c416 203 GND 0.70349f
c417 198 GND 0.220545f
c418 195 GND 0.499143f
c419 194 GND 0.499123f
c420 192 GND 0.529293f
c421 190 GND 0.336665f
c422 189 GND 0.0401899f
c423 186 GND 0.0340103f
c424 185 GND 0.01188f
c425 184 GND 0.01188f
c426 183 GND 0.0702f
c427 178 GND 0.0541645f
c428 176 GND 0.452232f
c429 175 GND 0.497667f
c430 174 GND 0.497682f
c431 173 GND 0.497667f
c432 171 GND 0.438001f
c433 168 GND 0.482202f
c434 167 GND 0.482187f
c435 166 GND 0.482202f
c436 165 GND 0.482187f
c437 163 GND 0.482187f
c438 160 GND 0.508518f
c439 159 GND 0.508503f
c440 158 GND 0.508518f
c441 157 GND 0.508503f
c442 155 GND 0.508503f
c443 152 GND 0.143543f
c444 151 GND 0.210781f
c445 150 GND 0.1575f
c446 148 GND 0.0786054f
c447 147 GND 0.165154f
c448 146 GND 0.15075f
c449 144 GND 0.0774204f
c450 143 GND 0.163024f
c451 142 GND 0.1575f
c452 140 GND 0.00344f
c453 139 GND 0.0249366f
c454 138 GND 0.00344f
c455 137 GND 0.0249366f
c456 135 GND 0.0240783f
c457 131 GND 0.0240783f
c458 127 GND 0.0567583f
c459 123 GND 0.0567583f
c460 120 GND 0.00344f
c461 119 GND 0.0146166f
c462 118 GND 0.00344f
c463 117 GND 0.0146166f
c464 115 GND 0.0421383f
c465 111 GND 0.0421383f
c466 107 GND 0.0343983f
c467 103 GND 0.0343983f
c468 100 GND 0.00344f
c469 99 GND 0.0249366f
c470 98 GND 0.00344f
c471 97 GND 0.0249366f
c472 95 GND 0.0240783f
c473 91 GND 0.0240783f
c474 87 GND 0.0567583f
c475 83 GND 0.0567583f
c476 80 GND 0.00344f
c477 79 GND 0.0146166f
c478 78 GND 0.00344f
c479 77 GND 0.0146166f
c480 75 GND 0.0421383f
c481 71 GND 0.0421383f
c482 67 GND 0.0343983f
c483 63 GND 0.0343983f
c484 60 GND 0.00344f
c485 59 GND 0.0249366f
c486 57 GND 0.0240783f
c487 54 GND 0.00344f
c488 53 GND 0.0249366f
c489 51 GND 0.0240783f
c490 47 GND 0.0567583f
c491 43 GND 0.0567583f
c492 40 GND 0.00344f
c493 39 GND 0.0146166f
c494 37 GND 0.0421383f
c495 34 GND 0.00344f
c496 33 GND 0.0146166f
c497 31 GND 0.0421383f
c498 27 GND 0.0343983f
c499 23 GND 0.0343983f
c500 20 GND 0.00344f
c501 19 GND 0.0249366f
c502 17 GND 0.0240783f
c503 13 GND 0.0567583f
c504 10 GND 0.00344f
c505 9 GND 0.0146166f
c506 7 GND 0.0421383f
c507 3 GND 0.0343983f
r508 817 819 0.0461131
r509 813 815 0.0461131
r510 808 811 0.0461131
r511 803 806 0.0461131
r512 798 800 0.0461131
r513 793 795 0.0461131
r514 789 791 0.0217933
r515 785 787 0.0217933
r516 781 783 0.0461131
r517 777 779 0.0461131
r518 772 775 0.0461131
r519 767 770 0.0461131
r520 762 764 0.0461131
r521 757 759 0.0461131
r522 753 755 0.0217933
r523 749 751 0.0217933
r524 745 747 0.0461131
r525 741 743 0.0461131
r526 736 739 0.0461131
r527 731 734 0.0461131
r528 726 728 0.0461131
r529 721 723 0.0461131
r530 717 719 0.0217933
r531 713 715 0.0217933
r532 709 711 0.0461131
r533 704 707 0.0461131
r534 699 701 0.0461131
r535 695 697 0.0217933
r536 662 665 0.0583252
r537 653 656 0.0583252
r538 588 590 0.0451795
r539 588 589 9.6
r540 583 585 0.0451795
r541 583 584 9.6
r542 578 789 8.58
r543 577 580 0.024
r544 577 578 4.29
r545 572 785 8.58
r546 571 574 0.024
r547 571 572 4.29
r548 566 568 0.0451795
r549 566 567 9.6
r550 561 563 0.0451795
r551 561 562 9.6
r552 556 753 8.58
r553 555 558 0.024
r554 555 556 4.29
r555 550 749 8.58
r556 549 552 0.024
r557 549 550 4.29
r558 544 546 0.0451795
r559 544 545 9.6
r560 539 541 0.0451795
r561 539 540 9.6
r562 534 717 8.58
r563 533 536 0.024
r564 533 534 4.29
r565 528 713 8.58
r566 527 530 0.024
r567 527 528 4.29
r568 522 524 0.0451795
r569 522 523 9.6
r570 517 695 8.58
r571 516 519 0.024
r572 516 517 4.29
r573 513 817 8.58
r574 509 513 4.29
r575 509 510 9.6
r576 506 813 8.58
r577 502 506 4.29
r578 502 503 9.6
r579 496 808 8.58
r580 495 499 9.6
r581 495 496 4.29
r582 489 803 8.58
r583 488 492 9.6
r584 488 489 4.29
r585 482 798 8.58
r586 481 485 9.6
r587 481 482 4.29
r588 475 793 8.58
r589 474 478 9.6
r590 474 475 4.29
r591 472 580 0.024431
r592 472 590 0.106667
r593 470 574 0.024431
r594 470 585 0.106667
r595 467 781 8.58
r596 463 467 4.29
r597 463 464 9.6
r598 460 777 8.58
r599 456 460 4.29
r600 456 457 9.6
r601 450 772 8.58
r602 449 453 9.6
r603 449 450 4.29
r604 443 767 8.58
r605 442 446 9.6
r606 442 443 4.29
r607 436 762 8.58
r608 435 439 9.6
r609 435 436 4.29
r610 429 757 8.58
r611 428 432 9.6
r612 428 429 4.29
r613 426 558 0.024431
r614 426 568 0.106667
r615 424 552 0.024431
r616 424 563 0.106667
r617 421 745 8.58
r618 417 421 4.29
r619 417 418 9.6
r620 414 741 8.58
r621 410 414 4.29
r622 410 411 9.6
r623 404 736 8.58
r624 403 407 9.6
r625 403 404 4.29
r626 397 731 8.58
r627 396 400 9.6
r628 396 397 4.29
r629 390 726 8.58
r630 389 393 9.6
r631 389 390 4.29
r632 383 721 8.58
r633 382 386 9.6
r634 382 383 4.29
r635 380 536 0.024431
r636 380 546 0.106667
r637 378 530 0.024431
r638 378 541 0.106667
r639 375 709 8.58
r640 371 375 4.29
r641 371 372 9.6
r642 365 704 8.58
r643 364 368 9.6
r644 364 365 4.29
r645 358 699 8.58
r646 357 361 9.6
r647 357 358 4.29
r648 355 519 0.024431
r649 355 524 0.106667
r650 351 667 17.35
r651 350 352 0.0461131
r652 350 351 13.16
r653 347 350 0.021
r654 345 671 17.35
r655 344 345 13.16
r656 342 344 0.0284784
r657 338 690 0.0527007
r658 338 662 17.35
r659 337 339 0.0461131
r660 337 338 13.16
r661 334 337 0.014
r662 332 658 17.35
r663 331 333 0.0461131
r664 331 332 13.16
r665 328 331 0.007
r666 326 687 0.0527007
r667 326 653 17.35
r668 325 326 13.16
r669 323 325 0.021195
r670 321 649 17.35
r671 320 321 13.16
r672 318 320 0.0376101
r673 316 684 0.0527007
r674 315 316 13.16
r675 312 315 0.014
r676 310 817 0.0461131
r677 310 311 1.715
r678 308 813 0.0461131
r679 308 309 1.715
r680 306 819 0.303333
r681 304 815 0.303333
r682 302 311 0.039111
r683 302 811 0.945
r684 300 309 0.039111
r685 300 806 0.945
r686 298 800 1.63333
r687 296 795 1.63333
r688 294 295 1.21333
r689 293 344 0.0461566
r690 293 294 1.21333
r691 292 304 0.039111
r692 292 295 1.21333
r693 290 291 1.21721
r694 290 352 1.21721
r695 288 306 0.039111
r696 288 291 1.21721
r697 287 353 0.0296412
r698 286 298 0.039111
r699 286 287 0.816667
r700 285 346 0.0296412
r701 284 296 0.039111
r702 284 285 0.816667
r703 283 353 0.00770322
r704 282 347 0.0213772
r705 282 283 0.128333
r706 281 346 0.00770322
r707 280 342 0.0208084
r708 280 281 0.14
r709 279 791 0.0201331
r710 278 353 0.0296412
r711 278 279 0.0933333
r712 277 787 0.0201331
r713 276 346 0.0296412
r714 276 277 0.0933333
r715 274 781 0.0461131
r716 274 275 1.715
r717 272 777 0.0461131
r718 272 273 1.715
r719 270 783 0.303333
r720 268 779 0.303333
r721 266 275 0.039111
r722 266 775 0.945
r723 264 273 0.039111
r724 264 770 0.945
r725 262 764 1.63333
r726 260 759 1.63333
r727 258 259 1.225
r728 257 334 0.0213772
r729 257 258 1.225
r730 256 268 0.039111
r731 256 259 1.225
r732 254 255 1.23277
r733 253 328 0.0213772
r734 253 254 1.23277
r735 252 270 0.039111
r736 252 255 1.23277
r737 251 341 0.0296412
r738 250 262 0.039111
r739 250 251 0.816667
r740 249 340 0.0296412
r741 248 260 0.039111
r742 248 249 0.816667
r743 247 341 0.00770322
r744 247 333 0.14
r745 245 340 0.00770322
r746 245 339 0.128333
r747 243 755 0.0201331
r748 242 341 0.0296412
r749 242 243 0.0933333
r750 241 751 0.0201331
r751 240 340 0.0296412
r752 240 241 0.0933333
r753 238 745 0.0461131
r754 238 239 1.715
r755 236 747 0.303333
r756 234 741 0.0461131
r757 234 235 1.715
r758 232 743 0.303333
r759 230 239 0.039111
r760 230 739 0.945
r761 228 235 0.039111
r762 228 734 0.945
r763 226 728 1.63333
r764 224 723 1.63333
r765 222 223 1.225
r766 221 323 0.0210668
r767 221 222 1.225
r768 220 236 0.039111
r769 220 223 1.225
r770 218 219 1.20944
r771 217 320 0.0464233
r772 217 218 1.20944
r773 216 232 0.039111
r774 216 219 1.20944
r775 215 327 0.0296412
r776 214 226 0.039111
r777 214 215 0.816667
r778 213 322 0.0296412
r779 212 224 0.039111
r780 212 213 0.816667
r781 211 327 0.00770322
r782 210 325 0.0461347
r783 210 211 0.116667
r784 209 322 0.00770322
r785 208 318 0.018966
r786 208 209 0.163333
r787 207 719 0.0201331
r788 206 327 0.0296412
r789 206 207 0.0933333
r790 205 715 0.0201331
r791 204 322 0.0296412
r792 204 205 0.0933333
r793 202 709 0.0461131
r794 202 203 1.715
r795 200 711 0.303333
r796 198 203 0.039111
r797 198 707 0.945
r798 196 701 1.63333
r799 194 195 1.22887
r800 193 312 0.0213772
r801 193 194 1.22887
r802 192 200 0.039111
r803 192 195 1.22887
r804 191 317 0.0296412
r805 190 196 0.039111
r806 190 191 0.816667
r807 189 317 0.00770322
r808 188 315 0.0461131
r809 188 189 0.128333
r810 187 697 0.0201331
r811 186 317 0.0296412
r812 186 187 0.0933333
r813 182 183 0.0599866
r814 179 182 0.02
r815 178 351 0.0527007
r816 177 178 0.973333
r817 175 176 1.71467
r818 174 175 1.71467
r819 173 174 1.71467
r820 172 185 0.0338756
r821 172 173 1.71467
r822 171 177 0.0446983
r823 171 176 1.71467
r824 169 185 0.00880368
r825 169 690 1.01333
r826 167 168 1.66133
r827 166 167 1.66133
r828 165 166 1.66133
r829 164 184 0.0338756
r830 164 165 1.66133
r831 163 185 0.0338756
r832 163 168 1.66133
r833 161 184 0.00880368
r834 161 687 0.986667
r835 159 160 1.752
r836 158 159 1.752
r837 157 158 1.752
r838 157 183 1.752
r839 155 184 0.0338756
r840 155 160 1.752
r841 153 179 0.031483
r842 153 684 0.986667
r843 151 152 1.59054
r844 150 671 0.0583252
r845 150 152 1.59054
r846 149 667 0.0583252
r847 149 151 1.59054
r848 147 148 1.57887
r849 147 665 1.57887
r850 146 658 0.0583252
r851 146 148 1.57887
r852 143 144 1.57887
r853 143 656 1.57887
r854 142 649 0.0583252
r855 142 144 1.57887
r856 139 510 6.71385
r857 139 140 55.825
r858 137 503 6.71385
r859 137 138 55.825
r860 133 140 4.30221
r861 133 135 36.575
r862 129 138 4.30221
r863 129 131 36.575
r864 125 499 6.71385
r865 125 127 90.475
r866 121 492 6.71385
r867 121 123 90.475
r868 119 485 6.71385
r869 119 120 32.725
r870 117 478 6.71385
r871 117 118 32.725
r872 113 120 4.30221
r873 113 115 57.75
r874 109 118 4.30221
r875 109 111 57.75
r876 105 589 6.71385
r877 105 107 59.675
r878 101 584 6.71385
r879 101 103 59.675
r880 99 464 6.71385
r881 99 100 55.825
r882 97 457 6.71385
r883 97 98 55.825
r884 93 100 4.30221
r885 93 95 36.575
r886 89 98 4.30221
r887 89 91 36.575
r888 85 453 6.71385
r889 85 87 90.475
r890 81 446 6.71385
r891 81 83 90.475
r892 79 439 6.71385
r893 79 80 32.725
r894 77 432 6.71385
r895 77 78 32.725
r896 73 80 4.30221
r897 73 75 57.75
r898 69 78 4.30221
r899 69 71 57.75
r900 65 567 6.71385
r901 65 67 59.675
r902 61 562 6.71385
r903 61 63 59.675
r904 59 418 6.71385
r905 59 60 55.825
r906 55 60 4.30221
r907 55 57 36.575
r908 53 411 6.71385
r909 53 54 55.825
r910 49 54 4.30221
r911 49 51 36.575
r912 45 407 6.71385
r913 45 47 90.475
r914 41 400 6.71385
r915 41 43 90.475
r916 39 393 6.71385
r917 39 40 32.725
r918 35 40 4.30221
r919 35 37 57.75
r920 33 386 6.71385
r921 33 34 32.725
r922 29 34 4.30221
r923 29 31 57.75
r924 25 545 6.71385
r925 25 27 59.675
r926 21 540 6.71385
r927 21 23 59.675
r928 19 372 6.71385
r929 19 20 55.825
r930 15 20 4.30221
r931 15 17 36.575
r932 11 368 6.71385
r933 11 13 90.475
r934 9 361 6.71385
r935 9 10 32.725
r936 5 10 4.30221
r937 5 7 57.75
r938 1 523 6.71385
r939 1 3 59.675
.ends

.subckt PM_FINAL_WITH_PISO_CLK 3 7 9 10 13 17 19 23 27 31 33 34 37 39 40 43 47
+ 51 53 57 59 63 67 71 75 77 78 79 80 83 87 91 95 97 99 103 107 111 115 117 118
+ 119 120 123 127 131 135 137 139 142 150 152 153 154 162 164 165 166 170 171
+ 176 177 178 182 186 189 196 200 202 205 209 212 220 222 228 230 233 237 242
+ 248 250 256 258 261 263 268 276 278 287 292 300 308 344 345 348 383 384 387
+ 436 437 440 628 670 681 699 704 710 733 738 749 767 772
c176 772 GND 0.65323f
c177 770 GND 0.0729f
c178 767 GND 0.65323f
c179 765 GND 0.0729f
c180 757 GND 0.0401799f
c181 755 GND 0.04374f
c182 753 GND 0.0401799f
c183 751 GND 0.04374f
c184 749 GND 0.0729f
c185 744 GND 0.0729f
c186 738 GND 0.65323f
c187 736 GND 0.0729f
c188 733 GND 0.65323f
c189 731 GND 0.0729f
c190 723 GND 0.0401799f
c191 721 GND 0.04374f
c192 719 GND 0.0401799f
c193 717 GND 0.04374f
c194 715 GND 0.0729f
c195 710 GND 0.0729f
c196 704 GND 0.65323f
c197 702 GND 0.0729f
c198 699 GND 0.65323f
c199 697 GND 0.0729f
c200 689 GND 0.0401799f
c201 687 GND 0.04374f
c202 685 GND 0.0401799f
c203 683 GND 0.04374f
c204 681 GND 0.0729f
c205 676 GND 0.0729f
c206 670 GND 0.65323f
c207 668 GND 0.0729f
c208 663 GND 0.0401799f
c209 661 GND 0.04374f
c210 659 GND 0.0729f
c211 632 GND 0.06078f
c212 631 GND 0.0418204f
c213 628 GND 0.092241f
c214 626 GND 0.0356404f
c215 623 GND 0.06078f
c216 622 GND 0.0418204f
c217 619 GND 0.0356404f
c218 616 GND 0.06078f
c219 615 GND 0.0418204f
c220 612 GND 0.0356404f
c221 608 GND 0.0421204f
c222 549 GND 0.00325407f
c223 548 GND 0.0215f
c224 544 GND 0.00325407f
c225 543 GND 0.0215f
c226 537 GND 0.066375f
c227 536 GND 0.008525f
c228 531 GND 0.066375f
c229 530 GND 0.008525f
c230 527 GND 0.00325407f
c231 526 GND 0.0215f
c232 522 GND 0.00325407f
c233 521 GND 0.0215f
c234 515 GND 0.066375f
c235 514 GND 0.008525f
c236 509 GND 0.066375f
c237 508 GND 0.008525f
c238 505 GND 0.00325407f
c239 504 GND 0.0215f
c240 500 GND 0.00325407f
c241 499 GND 0.0215f
c242 493 GND 0.066375f
c243 492 GND 0.008525f
c244 487 GND 0.066375f
c245 486 GND 0.008525f
c246 483 GND 0.00325407f
c247 482 GND 0.0215f
c248 476 GND 0.066375f
c249 475 GND 0.008525f
c250 472 GND 0.0215f
c251 469 GND 0.09558f
c252 465 GND 0.0215f
c253 462 GND 0.09558f
c254 454 GND 0.07965f
c255 451 GND 0.0215f
c256 450 GND 7.75e-19
c257 447 GND 0.07965f
c258 444 GND 0.0215f
c259 443 GND 7.75e-19
c260 440 GND 0.0215f
c261 437 GND 0.09558f
c262 433 GND 0.0215f
c263 430 GND 0.09558f
c264 426 GND 0.0215f
c265 423 GND 0.09558f
c266 419 GND 0.0215f
c267 416 GND 0.09558f
c268 408 GND 0.07965f
c269 405 GND 0.0215f
c270 404 GND 7.75e-19
c271 401 GND 0.07965f
c272 398 GND 0.0215f
c273 397 GND 7.75e-19
c274 394 GND 0.0215f
c275 391 GND 0.09558f
c276 387 GND 0.0215f
c277 384 GND 0.09558f
c278 380 GND 0.0215f
c279 377 GND 0.09558f
c280 373 GND 0.0215f
c281 370 GND 0.09558f
c282 362 GND 0.07965f
c283 359 GND 0.0215f
c284 358 GND 7.75e-19
c285 355 GND 0.07965f
c286 352 GND 0.0215f
c287 351 GND 7.75e-19
c288 348 GND 0.0215f
c289 345 GND 0.09558f
c290 341 GND 0.0215f
c291 338 GND 0.09558f
c292 334 GND 0.0215f
c293 331 GND 0.09558f
c294 325 GND 0.07965f
c295 322 GND 0.0215f
c296 321 GND 7.75e-19
c297 318 GND 0.0215f
c298 315 GND 0.09558f
c299 309 GND 0.07079f
c300 308 GND 0.42208f
c301 307 GND 0.05292f
c302 301 GND 0.07079f
c303 300 GND 0.396955f
c304 299 GND 0.05292f
c305 293 GND 0.07079f
c306 292 GND 0.33163f
c307 291 GND 0.05292f
c308 288 GND 0.07079f
c309 287 GND 0.356755f
c310 286 GND 0.05292f
c311 279 GND 0.06075f
c312 278 GND 0.370675f
c313 277 GND 0.06075f
c314 276 GND 0.370675f
c315 275 GND 0.07079f
c316 274 GND 0.0753549f
c317 272 GND 0.0854049f
c318 271 GND 0.03015f
c319 269 GND 0.03015f
c320 268 GND 0.43213f
c321 263 GND 0.70349f
c322 261 GND 0.70349f
c323 258 GND 0.220545f
c324 256 GND 0.220545f
c325 251 GND 0.06075f
c326 250 GND 0.370675f
c327 249 GND 0.06075f
c328 248 GND 0.370675f
c329 247 GND 0.07079f
c330 246 GND 0.115555f
c331 244 GND 0.11053f
c332 243 GND 0.03015f
c333 242 GND 0.39193f
c334 241 GND 0.03015f
c335 237 GND 0.70349f
c336 233 GND 0.70349f
c337 230 GND 0.220545f
c338 228 GND 0.22054f
c339 223 GND 0.06075f
c340 222 GND 0.370675f
c341 221 GND 0.06075f
c342 220 GND 0.370675f
c343 219 GND 0.07079f
c344 218 GND 0.15073f
c345 216 GND 0.175855f
c346 215 GND 0.03015f
c347 213 GND 0.03015f
c348 212 GND 0.356755f
c349 209 GND 0.70349f
c350 205 GND 0.70349f
c351 202 GND 0.220545f
c352 200 GND 0.220545f
c353 197 GND 0.06075f
c354 196 GND 0.370675f
c355 194 GND 0.15073f
c356 193 GND 0.03015f
c357 189 GND 0.70349f
c358 186 GND 0.220545f
c359 185 GND 0.00702f
c360 184 GND 0.00702f
c361 183 GND 0.04104f
c362 178 GND 0.172498f
c363 177 GND 0.29174f
c364 176 GND 0.145494f
c365 172 GND 0.2907f
c366 171 GND 0.171629f
c367 170 GND 0.258504f
c368 169 GND 0.290691f
c369 167 GND 0.304191f
c370 166 GND 0.156749f
c371 165 GND 0.289489f
c372 164 GND 0.143244f
c373 162 GND 0.085491f
c374 160 GND 0.2862f
c375 159 GND 0.286191f
c376 158 GND 0.2862f
c377 157 GND 0.286191f
c378 155 GND 0.286191f
c379 154 GND 0.158999f
c380 153 GND 0.29174f
c381 152 GND 0.145494f
c382 150 GND 0.078741f
c383 148 GND 0.29295f
c384 147 GND 0.292941f
c385 146 GND 0.29295f
c386 145 GND 0.292941f
c387 143 GND 0.292941f
c388 142 GND 0.080991f
c389 140 GND 0.00344f
c390 139 GND 0.0146166f
c391 138 GND 0.00344f
c392 137 GND 0.0146166f
c393 135 GND 0.0421383f
c394 131 GND 0.0421383f
c395 127 GND 0.0343983f
c396 123 GND 0.0343983f
c397 120 GND 0.00344f
c398 119 GND 0.0249366f
c399 118 GND 0.00344f
c400 117 GND 0.0249366f
c401 115 GND 0.0240783f
c402 111 GND 0.0240783f
c403 107 GND 0.0567583f
c404 103 GND 0.0567583f
c405 100 GND 0.00344f
c406 99 GND 0.0146166f
c407 98 GND 0.00344f
c408 97 GND 0.0146166f
c409 95 GND 0.0421383f
c410 91 GND 0.0421383f
c411 87 GND 0.0343983f
c412 83 GND 0.0343983f
c413 80 GND 0.00344f
c414 79 GND 0.0249366f
c415 78 GND 0.00344f
c416 77 GND 0.0249366f
c417 75 GND 0.0240783f
c418 71 GND 0.0240783f
c419 67 GND 0.0567583f
c420 63 GND 0.0567583f
c421 60 GND 0.00344f
c422 59 GND 0.0146166f
c423 57 GND 0.0421383f
c424 54 GND 0.00344f
c425 53 GND 0.0146166f
c426 51 GND 0.0421383f
c427 47 GND 0.0343983f
c428 43 GND 0.0343983f
c429 40 GND 0.00344f
c430 39 GND 0.0249366f
c431 37 GND 0.0240783f
c432 34 GND 0.00344f
c433 33 GND 0.0249366f
c434 31 GND 0.0240783f
c435 27 GND 0.0567583f
c436 23 GND 0.0567583f
c437 20 GND 0.00344f
c438 19 GND 0.0146166f
c439 17 GND 0.0421383f
c440 13 GND 0.0343983f
c441 10 GND 0.00344f
c442 9 GND 0.0249366f
c443 7 GND 0.0240783f
c444 3 GND 0.0567583f
r445 770 772 0.0461131
r446 765 767 0.0461131
r447 755 757 0.0461131
r448 751 753 0.0461131
r449 746 749 0.0461131
r450 741 744 0.0461131
r451 736 738 0.0461131
r452 731 733 0.0461131
r453 721 723 0.0461131
r454 717 719 0.0461131
r455 712 715 0.0461131
r456 707 710 0.0461131
r457 702 704 0.0461131
r458 697 699 0.0461131
r459 687 689 0.0461131
r460 683 685 0.0461131
r461 678 681 0.0461131
r462 673 676 0.0461131
r463 668 670 0.0461131
r464 661 663 0.0461131
r465 656 659 0.0461131
r466 631 632 17.35
r467 626 629 0.0583252
r468 626 628 0.0583252
r469 622 623 17.35
r470 615 616 17.35
r471 547 549 0.0451795
r472 547 548 9.6
r473 542 544 0.0451795
r474 542 543 9.6
r475 537 762 8.58
r476 536 539 0.024
r477 536 537 4.29
r478 531 759 8.58
r479 530 533 0.024
r480 530 531 4.29
r481 525 527 0.0451795
r482 525 526 9.6
r483 520 522 0.0451795
r484 520 521 9.6
r485 515 728 8.58
r486 514 517 0.024
r487 514 515 4.29
r488 509 725 8.58
r489 508 511 0.024
r490 508 509 4.29
r491 503 505 0.0451795
r492 503 504 9.6
r493 498 500 0.0451795
r494 498 499 9.6
r495 493 694 8.58
r496 492 495 0.024
r497 492 493 4.29
r498 487 691 8.58
r499 486 489 0.024
r500 486 487 4.29
r501 481 483 0.0451795
r502 481 482 9.6
r503 476 665 8.58
r504 475 478 0.024
r505 475 476 4.29
r506 469 770 8.58
r507 468 472 9.6
r508 468 469 4.29
r509 462 765 8.58
r510 461 465 9.6
r511 461 462 4.29
r512 459 539 0.024431
r513 459 549 0.106667
r514 457 533 0.024431
r515 457 544 0.106667
r516 454 755 8.58
r517 450 454 4.29
r518 450 451 9.6
r519 447 751 8.58
r520 443 447 4.29
r521 443 444 9.6
r522 437 746 8.58
r523 436 440 9.6
r524 436 437 4.29
r525 430 741 8.58
r526 429 433 9.6
r527 429 430 4.29
r528 423 736 8.58
r529 422 426 9.6
r530 422 423 4.29
r531 416 731 8.58
r532 415 419 9.6
r533 415 416 4.29
r534 413 517 0.024431
r535 413 527 0.106667
r536 411 511 0.024431
r537 411 522 0.106667
r538 408 721 8.58
r539 404 408 4.29
r540 404 405 9.6
r541 401 717 8.58
r542 397 401 4.29
r543 397 398 9.6
r544 391 712 8.58
r545 390 394 9.6
r546 390 391 4.29
r547 384 707 8.58
r548 383 387 9.6
r549 383 384 4.29
r550 377 702 8.58
r551 376 380 9.6
r552 376 377 4.29
r553 370 697 8.58
r554 369 373 9.6
r555 369 370 4.29
r556 367 495 0.024431
r557 367 505 0.106667
r558 365 489 0.024431
r559 365 500 0.106667
r560 362 687 8.58
r561 358 362 4.29
r562 358 359 9.6
r563 355 683 8.58
r564 351 355 4.29
r565 351 352 9.6
r566 345 678 8.58
r567 344 348 9.6
r568 344 345 4.29
r569 338 673 8.58
r570 337 341 9.6
r571 337 338 4.29
r572 331 668 8.58
r573 330 334 9.6
r574 330 331 4.29
r575 328 478 0.024431
r576 328 483 0.106667
r577 325 661 8.58
r578 321 325 4.29
r579 321 322 9.6
r580 315 656 8.58
r581 314 318 9.6
r582 314 315 4.29
r583 311 632 13.16
r584 307 626 17.35
r585 306 309 0.0461131
r586 306 308 0.0461131
r587 306 307 13.16
r588 303 623 13.16
r589 299 619 17.35
r590 298 301 0.0461131
r591 298 300 0.0461131
r592 298 299 13.16
r593 295 616 13.16
r594 291 612 17.35
r595 290 293 0.0461131
r596 290 292 0.0461131
r597 290 291 13.16
r598 286 608 17.35
r599 285 288 0.0461131
r600 285 287 0.0461131
r601 285 286 13.16
r602 282 772 1.63333
r603 280 767 1.63333
r604 279 762 0.0460931
r605 278 282 0.039111
r606 278 279 0.98
r607 277 759 0.0460931
r608 276 280 0.039111
r609 276 277 0.98
r610 275 311 0.0461131
r611 274 759 0.0460931
r612 274 275 0.175
r613 272 762 0.0460931
r614 272 309 0.198333
r615 271 308 1.05
r616 268 311 0.0461131
r617 268 269 1.07333
r618 266 271 0.039111
r619 266 757 0.0933333
r620 264 269 0.039111
r621 264 753 0.0933333
r622 262 755 0.0461131
r623 262 263 1.715
r624 260 751 0.0461131
r625 260 261 1.715
r626 258 263 0.039111
r627 258 749 0.945
r628 256 261 0.039111
r629 256 744 0.945
r630 254 738 1.63333
r631 252 733 1.63333
r632 251 728 0.0460931
r633 250 254 0.039111
r634 250 251 0.98
r635 249 725 0.0460931
r636 248 252 0.039111
r637 248 249 0.98
r638 247 303 0.0461131
r639 246 728 0.0460931
r640 246 247 0.268333
r641 244 725 0.0460931
r642 244 301 0.256667
r643 242 303 0.0461131
r644 242 243 0.98
r645 241 300 0.991667
r646 238 243 0.039111
r647 238 723 0.0933333
r648 236 721 0.0461131
r649 236 237 1.715
r650 234 241 0.039111
r651 234 719 0.0933333
r652 232 717 0.0461131
r653 232 233 1.715
r654 230 237 0.039111
r655 230 715 0.945
r656 228 233 0.039111
r657 228 710 0.945
r658 226 704 1.63333
r659 224 699 1.63333
r660 223 694 0.0460931
r661 222 226 0.039111
r662 222 223 0.98
r663 221 691 0.0460931
r664 220 224 0.039111
r665 220 221 0.98
r666 219 295 0.0461131
r667 218 691 0.0460931
r668 218 219 0.35
r669 216 694 0.0460931
r670 216 293 0.408333
r671 215 292 0.84
r672 212 295 0.0461131
r673 212 213 0.898333
r674 210 215 0.039111
r675 210 689 0.0933333
r676 208 687 0.0461131
r677 208 209 1.715
r678 206 213 0.039111
r679 206 685 0.0933333
r680 204 683 0.0461131
r681 204 205 1.715
r682 202 209 0.039111
r683 202 681 0.945
r684 200 205 0.039111
r685 200 676 0.945
r686 198 670 1.63333
r687 197 665 0.0460931
r688 196 198 0.039111
r689 196 197 0.98
r690 194 665 0.0460931
r691 194 288 0.35
r692 193 287 0.898333
r693 190 193 0.039111
r694 190 663 0.0933333
r695 188 661 0.0461131
r696 188 189 1.715
r697 186 189 0.039111
r698 186 659 0.945
r699 182 183 0.0524883
r700 179 182 0.0175
r701 177 178 1.58277
r702 177 629 1.58277
r703 176 631 0.0583252
r704 176 178 1.58277
r705 173 628 1.23667
r706 171 172 1.50733
r707 170 171 1.50733
r708 169 170 1.50733
r709 168 185 0.0296412
r710 168 169 1.50733
r711 167 173 0.039111
r712 167 172 1.50733
r713 165 166 1.5711
r714 164 622 0.0583252
r715 164 166 1.5711
r716 163 619 0.0583252
r717 163 165 1.5711
r718 162 619 0.0583252
r719 161 185 0.00770322
r720 161 162 1.27167
r721 159 160 1.484
r722 158 159 1.484
r723 157 158 1.484
r724 156 184 0.0296412
r725 156 157 1.484
r726 155 185 0.0296412
r727 155 160 1.484
r728 153 154 1.58277
r729 152 615 0.0583252
r730 152 154 1.58277
r731 151 612 0.0583252
r732 151 153 1.58277
r733 150 612 0.0583252
r734 149 184 0.00770322
r735 149 150 1.23667
r736 147 148 1.519
r737 146 147 1.519
r738 145 146 1.519
r739 145 183 1.519
r740 143 184 0.0296412
r741 143 148 1.519
r742 142 608 0.0583252
r743 141 179 0.0275476
r744 141 142 1.24833
r745 139 472 6.71385
r746 139 140 32.725
r747 137 465 6.71385
r748 137 138 32.725
r749 133 140 4.30221
r750 133 135 57.75
r751 129 138 4.30221
r752 129 131 57.75
r753 125 548 6.71385
r754 125 127 59.675
r755 121 543 6.71385
r756 121 123 59.675
r757 119 451 6.71385
r758 119 120 55.825
r759 117 444 6.71385
r760 117 118 55.825
r761 113 120 4.30221
r762 113 115 36.575
r763 109 118 4.30221
r764 109 111 36.575
r765 105 440 6.71385
r766 105 107 90.475
r767 101 433 6.71385
r768 101 103 90.475
r769 99 426 6.71385
r770 99 100 32.725
r771 97 419 6.71385
r772 97 98 32.725
r773 93 100 4.30221
r774 93 95 57.75
r775 89 98 4.30221
r776 89 91 57.75
r777 85 526 6.71385
r778 85 87 59.675
r779 81 521 6.71385
r780 81 83 59.675
r781 79 405 6.71385
r782 79 80 55.825
r783 77 398 6.71385
r784 77 78 55.825
r785 73 80 4.30221
r786 73 75 36.575
r787 69 78 4.30221
r788 69 71 36.575
r789 65 394 6.71385
r790 65 67 90.475
r791 61 387 6.71385
r792 61 63 90.475
r793 59 380 6.71385
r794 59 60 32.725
r795 55 60 4.30221
r796 55 57 57.75
r797 53 373 6.71385
r798 53 54 32.725
r799 49 54 4.30221
r800 49 51 57.75
r801 45 504 6.71385
r802 45 47 59.675
r803 41 499 6.71385
r804 41 43 59.675
r805 39 359 6.71385
r806 39 40 55.825
r807 35 40 4.30221
r808 35 37 36.575
r809 33 352 6.71385
r810 33 34 55.825
r811 29 34 4.30221
r812 29 31 36.575
r813 25 348 6.71385
r814 25 27 90.475
r815 21 341 6.71385
r816 21 23 90.475
r817 19 334 6.71385
r818 19 20 32.725
r819 15 20 4.30221
r820 15 17 57.75
r821 11 482 6.71385
r822 11 13 59.675
r823 9 322 6.71385